Version 4
SHEET 1 6124 2336
WIRE -192 -1280 -384 -1280
WIRE -96 -1280 -192 -1280
WIRE 96 -1280 -96 -1280
WIRE 192 -1280 96 -1280
WIRE 384 -1280 192 -1280
WIRE 480 -1280 384 -1280
WIRE 960 -1280 480 -1280
WIRE 1632 -1280 960 -1280
WIRE 1824 -1280 1632 -1280
WIRE 2016 -1280 1824 -1280
WIRE 2208 -1280 2016 -1280
WIRE 2592 -1280 2208 -1280
WIRE 2688 -1280 2672 -1280
WIRE -384 -1264 -384 -1280
WIRE -192 -1264 -192 -1280
WIRE 384 -1264 384 -1280
WIRE 480 -1264 480 -1280
WIRE 960 -1264 960 -1280
WIRE -192 -1168 -192 -1200
WIRE 192 -1136 192 -1280
WIRE 288 -1088 256 -1088
WIRE 384 -1088 384 -1184
WIRE 384 -1088 368 -1088
WIRE -96 -1072 -96 -1280
WIRE 96 -1072 96 -1280
WIRE -384 -1040 -384 -1184
WIRE 384 -1040 384 -1088
WIRE 480 -1040 480 -1184
WIRE -192 -992 -192 -1104
WIRE -192 -992 -320 -992
WIRE 192 -992 192 -1040
WIRE 320 -992 192 -992
WIRE 416 -992 320 -992
WIRE -192 -976 -192 -992
WIRE 192 -976 192 -992
WIRE -96 -896 -96 -1008
WIRE -96 -896 -192 -896
WIRE 96 -896 96 -1008
WIRE 192 -896 96 -896
WIRE -192 -880 -192 -896
WIRE 192 -880 192 -896
WIRE 1632 -848 1632 -1280
WIRE 384 -800 384 -944
WIRE 480 -800 480 -944
WIRE 480 -800 384 -800
WIRE 576 -800 560 -800
WIRE 672 -800 576 -800
WIRE 768 -800 672 -800
WIRE 1456 -800 768 -800
WIRE 1568 -800 1536 -800
WIRE 768 -784 768 -800
WIRE 1824 -752 1824 -1280
WIRE -560 -704 -576 -704
WIRE -192 -704 -192 -800
WIRE -192 -704 -480 -704
WIRE 0 -704 -192 -704
WIRE 192 -704 192 -800
WIRE 192 -704 0 -704
WIRE 960 -704 960 -1184
WIRE 1152 -704 960 -704
WIRE 1632 -704 1632 -752
WIRE 1648 -704 1632 -704
WIRE 1760 -704 1728 -704
WIRE 1152 -688 1152 -704
WIRE 2016 -656 2016 -1280
WIRE 1632 -608 1632 -704
WIRE 1840 -608 1632 -608
WIRE 1952 -608 1920 -608
WIRE 384 -592 384 -800
WIRE 960 -592 960 -704
WIRE 1152 -592 1152 -624
WIRE 2208 -560 2208 -1280
WIRE -384 -512 -384 -944
WIRE -192 -512 -384 -512
WIRE 1632 -512 1632 -608
WIRE 2032 -512 1632 -512
WIRE 2144 -512 2112 -512
WIRE -384 -496 -384 -512
WIRE -192 -496 -192 -512
WIRE 960 -496 960 -512
WIRE 576 -464 576 -800
WIRE 768 -464 768 -720
WIRE 384 -416 384 -512
WIRE 512 -416 384 -416
WIRE 960 -416 832 -416
WIRE 1440 -416 960 -416
WIRE 1456 -416 1440 -416
WIRE 1824 -416 1824 -656
WIRE 1824 -416 1536 -416
WIRE -384 -368 -384 -416
WIRE -192 -368 -192 -416
WIRE -560 -320 -576 -320
WIRE -448 -320 -480 -320
WIRE -96 -320 -128 -320
WIRE 384 -320 384 -416
WIRE 1440 -320 1440 -416
WIRE 1632 -320 1632 -512
WIRE 1824 -320 1824 -416
WIRE 2016 -320 2016 -560
WIRE 2208 -320 2208 -464
WIRE 672 -304 672 -800
WIRE 768 -224 768 -368
WIRE 768 -224 288 -224
WIRE 1152 -224 1152 -512
WIRE 1152 -224 768 -224
WIRE 1440 -224 1440 -240
WIRE 1440 -224 1152 -224
WIRE 1824 -224 1824 -240
WIRE 1824 -224 1440 -224
WIRE 2016 -224 2016 -240
WIRE 2016 -224 1824 -224
WIRE 2208 -224 2208 -240
WIRE 2208 -224 2016 -224
WIRE 2592 -224 2208 -224
WIRE 2688 -224 2672 -224
WIRE 288 -208 288 -224
WIRE 384 -208 384 -240
WIRE 1440 -208 1440 -224
WIRE 1824 -208 1824 -224
WIRE 2016 -208 2016 -224
WIRE 2208 -208 2208 -224
WIRE -560 -128 -576 -128
WIRE -96 -128 -96 -320
WIRE -96 -128 -480 -128
WIRE 768 -80 768 -224
WIRE 960 -32 832 -32
WIRE 1440 -32 1440 -128
WIRE 1440 -32 960 -32
WIRE 1456 -32 1440 -32
WIRE 1824 -32 1824 -128
WIRE 1824 -32 1536 -32
WIRE 2208 16 2208 -128
WIRE 960 64 960 48
WIRE 1152 64 1152 -224
WIRE 1632 64 1632 -240
WIRE 2032 64 1632 64
WIRE 2144 64 2112 64
WIRE 2016 112 2016 -128
WIRE -384 160 -384 -272
WIRE -368 160 -384 160
WIRE -272 160 -288 160
WIRE -192 160 -192 -272
WIRE -192 160 -208 160
WIRE 112 160 96 160
WIRE 208 160 192 160
WIRE 288 160 288 -128
WIRE 288 160 272 160
WIRE 304 160 288 160
WIRE 384 160 384 -128
WIRE 384 160 368 160
WIRE 1632 160 1632 64
WIRE 1840 160 1632 160
WIRE 1952 160 1920 160
WIRE 1152 176 1152 144
WIRE 1824 208 1824 -32
WIRE 96 256 96 160
WIRE 304 256 96 256
WIRE 384 256 384 160
WIRE 384 256 368 256
WIRE 960 256 960 144
WIRE 1152 256 1152 240
WIRE 1152 256 960 256
WIRE 1632 256 1632 160
WIRE 1648 256 1632 256
WIRE 1760 256 1728 256
WIRE 768 272 768 16
WIRE 1632 304 1632 256
WIRE 384 352 384 256
WIRE 480 352 384 352
WIRE 576 352 576 -368
WIRE 576 352 480 352
WIRE 672 352 672 -240
WIRE 672 352 576 352
WIRE 768 352 768 336
WIRE 768 352 672 352
WIRE 1456 352 768 352
WIRE 1568 352 1536 352
WIRE 288 400 288 352
WIRE -384 448 -384 160
WIRE 96 448 96 256
WIRE 96 448 -384 448
WIRE 224 448 96 448
WIRE 1152 448 864 448
WIRE 1248 448 1232 448
WIRE 384 496 384 352
WIRE 480 496 480 352
WIRE 864 496 864 448
WIRE -192 544 -192 160
WIRE -192 544 -288 544
WIRE 288 544 288 496
WIRE 320 544 288 544
WIRE 416 544 320 544
WIRE 592 544 416 544
WIRE 768 544 672 544
WIRE 800 544 768 544
WIRE -384 592 -384 448
WIRE -192 592 -192 544
WIRE 96 592 96 448
WIRE 768 592 768 544
WIRE -288 640 -288 544
WIRE -288 640 -320 640
WIRE -256 640 -288 640
WIRE 192 640 160 640
WIRE 384 640 384 592
WIRE 384 640 272 640
WIRE 592 640 384 640
WIRE 704 640 672 640
WIRE -96 656 -96 544
WIRE -384 736 -384 688
WIRE -384 736 -480 736
WIRE -192 736 -192 688
WIRE -96 736 -96 720
WIRE -96 736 -192 736
WIRE 288 736 288 544
WIRE 384 736 384 640
WIRE 480 736 480 592
WIRE -480 752 -480 736
WIRE 1248 752 1248 640
WIRE 1344 752 1344 640
WIRE -480 832 -480 816
WIRE -384 832 -384 816
WIRE -384 832 -480 832
WIRE -192 832 -192 816
WIRE -192 832 -384 832
WIRE 96 832 96 688
WIRE 96 832 -192 832
WIRE 288 832 288 816
WIRE 288 832 96 832
WIRE 384 832 384 816
WIRE 384 832 288 832
WIRE 480 832 480 816
WIRE 480 832 384 832
WIRE 768 832 768 688
WIRE 768 832 480 832
WIRE 864 832 864 592
WIRE 864 832 768 832
WIRE 960 832 960 336
WIRE 960 832 864 832
WIRE 1248 832 1248 816
WIRE 1248 832 960 832
WIRE 1344 832 1344 816
WIRE 1344 832 1248 832
WIRE 1456 832 1344 832
WIRE 1632 832 1632 400
WIRE 1632 832 1536 832
WIRE 1824 832 1824 304
WIRE 1824 832 1632 832
WIRE 2016 832 2016 208
WIRE 2016 832 1824 832
WIRE 2208 832 2208 112
WIRE 2208 832 2016 832
WIRE 2592 832 2208 832
WIRE 2688 832 2672 832
FLAG 2688 -1280 pvcc
IOPIN 2688 -1280 In
FLAG 2688 832 pvee
IOPIN 2688 832 In
FLAG 2688 -224 out
IOPIN 2688 -224 Out
FLAG -576 -320 ninv
IOPIN -576 -320 In
FLAG -576 -128 inv
IOPIN -576 -128 In
FLAG -576 -704 gnd
IOPIN -576 -704 In
FLAG 0 -704 lgnd
FLAG 288 352 lgnd
FLAG -96 544 lgnd
FLAG 1248 448 prot
IOPIN 1248 448 Out
FLAG 1248 640 lgnd
FLAG 1344 640 lgnd
SYMBOL pnp -448 -272 M180
WINDOW 0 77 84 Left 2
WINDOW 3 75 52 Left 2
SYMATTR InstName Q11
SYMATTR Value 2N5401
SYMBOL res -400 720 R0
SYMATTR InstName R2
SYMATTR Value 100
SYMBOL res -208 720 R0
SYMATTR InstName R3
SYMATTR Value 100
SYMBOL res -400 -512 R0
SYMATTR InstName R9
SYMATTR Value 150
SYMBOL res -208 -512 R0
SYMATTR InstName R10
SYMATTR Value 150
SYMBOL res 368 -1280 R0
SYMATTR InstName R16
SYMATTR Value 62
SYMBOL pnp 320 -944 M180
SYMATTR InstName Q12
SYMATTR Value 2SA1381F
SYMBOL res 1552 -816 R90
WINDOW 0 0 56 VBottom 2
WINDOW 3 32 56 VTop 2
SYMATTR InstName R27
SYMATTR Value 10
SYMBOL res 1552 336 R90
WINDOW 0 0 56 VBottom 2
WINDOW 3 32 56 VTop 2
SYMATTR InstName R30
SYMATTR Value 10
SYMBOL res -400 -1280 R0
SYMATTR InstName R47
SYMATTR Value 150
SYMBOL res 368 -336 R0
WINDOW 3 36 76 Invisible 2
SYMATTR Value {1+(500*BIAS)}
SYMATTR InstName PBIAS1
SYMBOL res 368 -608 R0
SYMATTR InstName R52
SYMATTR Value 1k5
SYMBOL res 576 -816 R90
WINDOW 0 0 56 VBottom 2
WINDOW 3 32 56 VTop 2
SYMATTR InstName R53
SYMATTR Value 33
SYMBOL npn 320 496 R0
SYMATTR InstName Q3
SYMATTR Value 2SC3503F
SYMBOL res 368 720 R0
SYMATTR InstName R6
SYMATTR Value 33
SYMBOL res 176 -992 R0
SYMATTR InstName R4
SYMATTR Value 7k5
SYMBOL pnp -320 -944 R180
SYMATTR InstName Q1
SYMATTR Value 2SA1381F
SYMBOL pnp -128 -272 R180
WINDOW 0 77 84 Left 2
WINDOW 3 75 52 Left 2
SYMATTR InstName Q7
SYMATTR Value 2N5401
SYMBOL npn 512 -464 R0
SYMATTR InstName Q21
SYMATTR Value MJE340
SYMBOL res 368 -224 R0
SYMATTR InstName R37
SYMATTR Value 270
SYMBOL npn 1760 -752 R0
SYMATTR InstName Qph1
SYMATTR Value MJL3281A
SYMBOL pnp 1760 304 M180
SYMATTR InstName Qpl1
SYMATTR Value MJL1302A
SYMBOL res 1744 -720 R90
WINDOW 0 0 56 VBottom 2
WINDOW 3 32 56 VTop 2
SYMATTR InstName R5
SYMATTR Value 2.7
SYMBOL res 1744 240 R90
WINDOW 0 0 56 VBottom 2
WINDOW 3 32 56 VTop 2
SYMATTR InstName R68
SYMATTR Value 2.7
SYMBOL cap 272 144 R90
WINDOW 0 0 32 VBottom 2
WINDOW 3 32 32 VTop 2
SYMATTR InstName Cmc
SYMATTR Value 100p
SYMATTR SpiceLine V=100 Irms=20.8m Rser=5.448 Lser=3n Rpar=6.4meg Cpar=1p
SYMBOL npn -256 592 R0
SYMATTR InstName Q6
SYMATTR Value CA_BC550C
SYMBOL npn -320 592 M0
SYMATTR InstName Q8
SYMATTR Value CA_BC550C
SYMBOL res 384 -1104 R90
WINDOW 0 0 56 VBottom 2
WINDOW 3 32 56 VTop 2
SYMATTR InstName R15
SYMATTR Value 1k
SYMBOL npn 224 400 R0
SYMATTR InstName Q2
SYMATTR Value BC546B
SYMBOL res 272 720 R0
SYMATTR InstName R7
SYMATTR Value 750
SYMBOL cap 368 144 R90
WINDOW 0 0 32 VBottom 2
WINDOW 3 32 32 VTop 2
SYMATTR InstName Ctc
SYMATTR Value 1n2
SYMATTR SpiceLine V=100 Irms=75.3m Rser=2.89088 Lser=3n Rpar=4.4meg Cpar=1p
SYMBOL res 272 -224 R0
SYMATTR InstName Rtc
SYMATTR Value 1k
SYMBOL diode 304 272 R270
WINDOW 0 32 32 VTop 2
WINDOW 3 0 32 VBottom 2
SYMATTR InstName D1
SYMATTR Value BAV21
SYMBOL pnp 256 -1040 R180
WINDOW 0 77 84 Left 2
WINDOW 3 75 52 Left 2
SYMATTR InstName Q10
SYMATTR Value 2N5401
SYMBOL res 1808 -336 R0
SYMATTR InstName R14
SYMATTR Value 0.22
SYMBOL res 1808 -224 R0
SYMATTR InstName R21
SYMATTR Value 0.22
SYMBOL cap 656 -240 M180
WINDOW 0 24 56 Left 2
WINDOW 3 24 8 Left 2
SYMATTR InstName C1
SYMATTR Value 220n
SYMATTR SpiceLine V=25 Irms=1.76 Rser=0.057522 Lser=3n Rpar=4.4meg Cpar=1p
SYMBOL ind -576 -688 R270
WINDOW 0 32 56 VTop 2
WINDOW 3 5 56 VBottom 2
SYMATTR InstName L1
SYMATTR Value 15n
SYMATTR SpiceLine Rser=20m
SYMBOL ind -576 -304 R270
WINDOW 0 32 56 VTop 2
WINDOW 3 5 56 VBottom 2
SYMATTR InstName L2
SYMATTR Value 15n
SYMATTR SpiceLine Rser=20m
SYMBOL ind -576 -112 R270
WINDOW 0 32 56 VTop 2
WINDOW 3 5 56 VBottom 2
SYMATTR InstName L3
SYMATTR Value 15n
SYMATTR SpiceLine Rser=20m
SYMBOL ind 2576 -208 R270
WINDOW 0 32 56 VTop 2
WINDOW 3 5 56 VBottom 2
SYMATTR InstName L10
SYMATTR Value 20n
SYMATTR SpiceLine Rser=10m
SYMBOL ind 2576 -1264 R270
WINDOW 0 32 56 VTop 2
WINDOW 3 5 56 VBottom 2
SYMATTR InstName L9
SYMATTR Value 10n
SYMATTR SpiceLine Rser=10m
SYMBOL ind 2576 848 R270
WINDOW 0 32 56 VTop 2
WINDOW 3 5 56 VBottom 2
SYMATTR InstName L12
SYMATTR Value 10n
SYMATTR SpiceLine Rser=10m
SYMBOL cap -272 176 R270
WINDOW 0 32 32 VTop 2
WINDOW 3 0 32 VBottom 2
SYMATTR InstName C4
SYMATTR Value 120p
SYMATTR SpiceLine V=100 Irms=20.8m Rser=15.448 Lser=3n Rpar=6.4meg Cpar=1p
SYMBOL res -272 144 R90
WINDOW 0 0 56 VBottom 2
WINDOW 3 32 56 VTop 2
SYMATTR InstName R17
SYMATTR Value 470
SYMBOL npn 1568 -848 R0
SYMATTR InstName Qpdh
SYMATTR Value CA_MJE15032C
SYMBOL pnp 1568 400 M180
SYMATTR InstName Qpdl
SYMATTR Value CA_MJE15033C
SYMBOL res 1616 -336 R0
SYMATTR InstName R1
SYMATTR Value 27
SYMBOL res 208 144 R90
WINDOW 0 0 56 VBottom 2
WINDOW 3 32 56 VTop 2
SYMATTR InstName Rrhz
SYMATTR Value 10
SYMBOL res 2000 -336 R0
SYMATTR InstName R8
SYMATTR Value 0.22
SYMBOL res 2000 -224 R0
SYMATTR InstName R24
SYMATTR Value 0.22
SYMBOL npn 1952 -656 R0
SYMATTR InstName Qph2
SYMATTR Value MJL3281A
SYMBOL res 1936 -624 R90
WINDOW 0 0 56 VBottom 2
WINDOW 3 32 56 VTop 2
SYMATTR InstName R32
SYMATTR Value 2.7
SYMBOL pnp 1952 208 M180
SYMATTR InstName Qpl2
SYMATTR Value MJL1302A
SYMBOL res 1936 144 R90
WINDOW 0 0 56 VBottom 2
WINDOW 3 32 56 VTop 2
SYMATTR InstName R33
SYMATTR Value 2.7
SYMBOL res 2192 -336 R0
SYMATTR InstName R34
SYMATTR Value 0.22
SYMBOL res 2192 -224 R0
SYMATTR InstName R36
SYMATTR Value 0.22
SYMBOL res 2128 -528 R90
WINDOW 0 0 56 VBottom 2
WINDOW 3 32 56 VTop 2
SYMATTR InstName R40
SYMATTR Value 2.7
SYMBOL res 2128 48 R90
WINDOW 0 0 56 VBottom 2
WINDOW 3 32 56 VTop 2
SYMATTR InstName R41
SYMATTR Value 2.7
SYMBOL ind 1136 464 R270
WINDOW 0 32 56 VTop 2
WINDOW 3 5 56 VBottom 2
SYMATTR InstName L4
SYMATTR Value 20n
SYMATTR SpiceLine Rser=10m
SYMBOL npn 160 592 M0
SYMATTR InstName Q4
SYMATTR Value BC546B
SYMBOL res 288 624 R90
WINDOW 0 0 56 VBottom 2
WINDOW 3 32 56 VTop 2
SYMATTR InstName R11
SYMATTR Value 1k
SYMBOL npn 832 -464 M0
SYMATTR InstName Q5
SYMATTR Value BC546B
SYMBOL res 1552 -432 R90
WINDOW 0 0 56 VBottom 2
WINDOW 3 32 56 VTop 2
SYMATTR InstName R18
SYMATTR Value 1k
SYMBOL res 1424 -336 R0
SYMATTR InstName R19
SYMATTR Value 1k
SYMBOL diode 752 -784 R0
SYMATTR InstName D2
SYMATTR Value BAV21
SYMBOL pnp 832 16 R180
SYMATTR InstName Q9
SYMATTR Value BC556B
SYMBOL res 1424 -224 R0
SYMATTR InstName R20
SYMATTR Value 1k
SYMBOL res 1552 -48 R90
WINDOW 0 0 56 VBottom 2
WINDOW 3 32 56 VTop 2
SYMATTR InstName R45
SYMATTR Value 1k
SYMBOL diode 752 272 R0
SYMATTR InstName D3
SYMATTR Value BAV21
SYMBOL res 944 -608 R0
SYMATTR InstName R55
SYMATTR Value 47k
SYMBOL res 944 -512 R0
SYMATTR InstName R56
SYMATTR Value 10k
SYMBOL res 944 -1280 R0
SYMATTR InstName R57
SYMATTR Value 13k
SYMBOL zener 1136 -624 M180
WINDOW 0 24 64 Left 2
WINDOW 3 24 0 Left 2
SYMATTR InstName D5
SYMATTR Value BZX84B24VL
SYMATTR Description Diode
SYMATTR Type diode
SYMBOL res 1136 -608 R0
SYMATTR InstName R58
SYMATTR Value 5k6
SYMBOL res 944 -48 R0
SYMATTR InstName R60
SYMATTR Value 10k
SYMBOL res 944 48 R0
SYMATTR InstName R61
SYMATTR Value 47k
SYMBOL res 1136 48 R0
SYMATTR InstName R63
SYMATTR Value 5k6
SYMBOL zener 1136 240 M180
WINDOW 0 24 64 Left 2
WINDOW 3 24 0 Left 2
SYMATTR InstName D7
SYMATTR Value BZX84B24VL
SYMATTR Description Diode
SYMATTR Type diode
SYMBOL res 944 240 R0
SYMATTR InstName R64
SYMATTR Value 13k
SYMBOL npn 704 592 R0
SYMATTR InstName Q14
SYMATTR Value 2N5550
SYMBOL res 688 624 R90
WINDOW 0 0 56 VBottom 2
WINDOW 3 32 56 VTop 2
SYMATTR InstName R70
SYMATTR Value 1k
SYMBOL pnp 416 -944 M180
SYMATTR InstName Q15
SYMATTR Value 2SA1381F
SYMBOL npn 416 496 R0
SYMATTR InstName Q16
SYMATTR Value 2SC3503F
SYMBOL res 464 720 R0
SYMATTR InstName R23
SYMATTR Value 33
SYMBOL res 688 528 R90
WINDOW 0 0 56 VBottom 2
WINDOW 3 32 56 VTop 2
SYMATTR InstName R25
SYMATTR Value 10k
SYMBOL npn 800 496 R0
SYMATTR InstName Q17
SYMATTR Value 2N5550
SYMBOL polcap 80 -1072 R0
SYMATTR InstName C2
SYMATTR Value 100µ
SYMATTR SpiceLine V=50 Irms=580m Rser=0.16 Lser=0 Rpar=700k Cpar=1p mfg="Nichicon" pn="UPL1H101MPH6" type="Al electrolytic"
SYMATTR Description Capacitor
SYMATTR Type cap
SYMBOL polcap -112 -1008 M180
WINDOW 0 24 56 Left 2
WINDOW 3 24 8 Left 2
SYMATTR InstName C3
SYMATTR Value 22µ
SYMATTR SpiceLine V=35 Irms=65m Rser=2.3 Lser=0 Rpar=700k Cpar=1p mfg="Nichicon" pn="UPR1V220MAH" type="Al electrolytic"
SYMATTR Description Capacitor
SYMATTR Type cap
SYMBOL res 176 -896 R0
SYMATTR InstName R26
SYMATTR Value 7k5
SYMBOL res -208 -992 R0
SYMATTR InstName R28
SYMATTR Value 7k5
SYMBOL res -208 -896 R0
SYMATTR InstName R29
SYMATTR Value 7k5
SYMBOL diode -208 -1264 R0
SYMATTR InstName D6
SYMATTR Value 1N4148
SYMBOL diode -208 -1168 R0
SYMATTR InstName D8
SYMATTR Value 1N4148
SYMBOL res 1552 816 R90
WINDOW 0 0 56 VBottom 2
WINDOW 3 32 56 VTop 2
SYMATTR InstName R12
SYMATTR Value 22
SYMBOL cap 1232 816 M180
WINDOW 0 24 56 Left 2
WINDOW 3 24 8 Left 2
SYMATTR InstName C5
SYMATTR Value 220n
SYMATTR SpiceLine V=25 Irms=1.76 Rser=0.057522 Lser=3n Rpar=4.4meg Cpar=1p
SYMBOL polcap 1328 752 R0
SYMATTR InstName C6
SYMATTR Value 1m
SYMATTR SpiceLine V=63 Irms=1.7 Rser=0.042 Lser=0 Rpar=4.4meg Cpar=1p
SYMATTR Description Capacitor
SYMATTR Type cap
SYMBOL pnp 2144 112 M180
SYMATTR InstName Qpl3
SYMATTR Value MJL1302A
SYMBOL npn 2144 -560 R0
SYMATTR InstName Qph3
SYMATTR Value MJL3281A
SYMBOL res 464 -1280 R0
SYMATTR InstName R22
SYMATTR Value 62
SYMBOL cap -496 752 R0
SYMATTR InstName Cmc1
SYMATTR Value 120p
SYMATTR SpiceLine V=100 Irms=20.8m Rser=5.448 Lser=3n Rpar=6.4meg Cpar=1p
SYMBOL cap -112 656 R0
SYMATTR InstName Cmc2
SYMATTR Value 120p
SYMATTR SpiceLine V=100 Irms=20.8m Rser=5.448 Lser=3n Rpar=6.4meg Cpar=1p
TEXT -1376 -968 Left 2 !.lib ../spice_root/lib/ONNN_BJT.lib
TEXT -1376 -904 Left 2 !.lib ../spice_root/lib/STM_D.lib
TEXT -1376 -1000 Left 2 !.lib ../spice_root/lib/FCS_BJT.lib
TEXT -1376 -1032 Left 2 !.lib ../spice_root/lib/FCS_D.lib
TEXT -1376 -936 Left 2 !.lib ../spice_root/lib/ONNN_D.lib
TEXT -1376 -872 Left 2 !.lib ../spice_root/lib/TSE_BJT.lib
TEXT -1376 -840 Left 2 !.lib ../spice_root/lib/TXN_IC.lib
RECTANGLE Normal -720 -816 -1392 -1056
