Version 4
SHEET 1 6124 2336
WIRE 192 -1088 0 -1088
WIRE 576 -1088 192 -1088
WIRE 768 -1088 576 -1088
WIRE 1344 -1088 768 -1088
WIRE 1536 -1088 1344 -1088
WIRE 1728 -1088 1536 -1088
WIRE 1824 -1088 1808 -1088
WIRE 0 -1072 0 -1088
WIRE 768 -1072 768 -1088
WIRE 192 -944 192 -1088
WIRE 576 -944 576 -1088
WIRE 0 -896 0 -992
WIRE 16 -896 0 -896
WIRE 128 -896 96 -896
WIRE 672 -896 640 -896
WIRE 768 -896 768 -992
WIRE 768 -896 752 -896
WIRE 0 -848 0 -896
WIRE 768 -848 768 -896
WIRE 192 -800 192 -848
WIRE 192 -800 64 -800
WIRE 576 -800 576 -848
WIRE 704 -800 576 -800
WIRE 192 -784 192 -800
WIRE 576 -784 576 -800
WIRE 1344 -656 1344 -1088
WIRE -176 -608 -192 -608
WIRE 192 -608 192 -704
WIRE 192 -608 -96 -608
WIRE 384 -608 192 -608
WIRE 576 -608 576 -704
WIRE 576 -608 384 -608
WIRE 768 -608 768 -752
WIRE 864 -608 768 -608
WIRE 960 -608 944 -608
WIRE 1056 -608 960 -608
WIRE 1152 -608 1056 -608
WIRE 1168 -608 1152 -608
WIRE 1280 -608 1248 -608
WIRE 768 -592 768 -608
WIRE 1056 -592 1056 -608
WIRE 1536 -560 1536 -1088
WIRE 0 -512 0 -752
WIRE 192 -512 0 -512
WIRE 1344 -512 1344 -560
WIRE 1360 -512 1344 -512
WIRE 1472 -512 1440 -512
WIRE 0 -496 0 -512
WIRE 192 -496 192 -512
WIRE 960 -464 960 -608
WIRE 1056 -464 1056 -528
WIRE 768 -416 768 -512
WIRE 896 -416 768 -416
WIRE 1440 -416 1120 -416
WIRE 1536 -416 1536 -464
WIRE 1536 -416 1520 -416
WIRE 1728 -416 1536 -416
WIRE 1824 -416 1808 -416
WIRE 0 -368 0 -416
WIRE 192 -368 192 -416
WIRE -176 -320 -192 -320
WIRE -64 -320 -96 -320
WIRE 288 -320 256 -320
WIRE 768 -320 768 -416
WIRE 1344 -320 1344 -512
WIRE 1440 -320 1440 -416
WIRE 1536 -320 1536 -416
WIRE 1152 -304 1152 -608
WIRE 1056 -224 1056 -368
WIRE 1056 -224 672 -224
WIRE 1440 -224 1440 -240
WIRE 1440 -224 1056 -224
WIRE 1536 -224 1536 -240
WIRE 1536 -224 1440 -224
WIRE 1728 -224 1536 -224
WIRE 1824 -224 1808 -224
WIRE 672 -208 672 -224
WIRE 768 -208 768 -240
WIRE 1440 -208 1440 -224
WIRE 1536 -208 1536 -224
WIRE 1056 -176 1056 -224
WIRE -176 -128 -192 -128
WIRE 288 -128 288 -320
WIRE 288 -128 -96 -128
WIRE 1440 -128 1120 -128
WIRE 1536 -128 1520 -128
WIRE 1728 -128 1536 -128
WIRE 1824 -128 1808 -128
WIRE 1536 -80 1536 -128
WIRE 592 -32 480 -32
WIRE 672 -32 672 -128
WIRE 672 -32 656 -32
WIRE 688 -32 672 -32
WIRE 768 -32 768 -128
WIRE 768 -32 752 -32
WIRE 1344 -32 1344 -240
WIRE 1360 -32 1344 -32
WIRE 1472 -32 1440 -32
WIRE 1056 -16 1056 -80
WIRE 1344 16 1344 -32
WIRE 0 64 0 -272
WIRE 16 64 0 64
WIRE 112 64 96 64
WIRE 192 64 192 -272
WIRE 192 64 176 64
WIRE 480 64 480 -32
WIRE 688 64 480 64
WIRE 768 64 768 -32
WIRE 768 64 752 64
WIRE 960 64 960 -368
WIRE 960 64 768 64
WIRE 1056 64 1056 48
WIRE 1056 64 960 64
WIRE 1152 64 1152 -240
WIRE 1152 64 1056 64
WIRE 1168 64 1152 64
WIRE 1280 64 1248 64
WIRE 384 160 384 -608
WIRE 672 160 384 160
WIRE 672 208 672 160
WIRE 0 256 0 64
WIRE 480 256 480 64
WIRE 480 256 0 256
WIRE 608 256 480 256
WIRE 768 304 768 64
WIRE 192 352 192 64
WIRE 192 352 96 352
WIRE 672 352 672 304
WIRE 704 352 672 352
WIRE 0 400 0 256
WIRE 192 400 192 352
WIRE 480 400 480 256
WIRE 96 448 96 352
WIRE 96 448 64 448
WIRE 128 448 96 448
WIRE 688 448 544 448
WIRE 768 448 768 400
WIRE 384 464 384 160
WIRE 0 544 0 496
WIRE 0 544 -96 544
WIRE 192 544 192 496
WIRE 384 544 384 528
WIRE 384 544 192 544
WIRE 672 544 672 352
WIRE 768 544 768 448
WIRE -96 560 -96 544
WIRE -96 640 -96 624
WIRE 0 640 0 624
WIRE 0 640 -96 640
WIRE 192 640 192 624
WIRE 192 640 0 640
WIRE 480 640 480 496
WIRE 480 640 192 640
WIRE 672 640 672 624
WIRE 672 640 480 640
WIRE 768 640 768 624
WIRE 768 640 672 640
WIRE 1344 640 1344 112
WIRE 1344 640 768 640
WIRE 1536 640 1536 16
WIRE 1536 640 1344 640
WIRE 1728 640 1536 640
WIRE 1824 640 1808 640
FLAG 1824 -1088 pvcc
IOPIN 1824 -1088 In
FLAG 1824 640 pvee
IOPIN 1824 640 In
FLAG 1824 -224 out
IOPIN 1824 -224 Out
FLAG -192 -320 ninv
IOPIN -192 -320 In
FLAG -192 -128 inv
IOPIN -192 -128 In
FLAG -192 -608 bias
IOPIN -192 -608 In
FLAG 1824 -416 opsp
IOPIN 1824 -416 Out
FLAG 1824 -128 opsn
IOPIN 1824 -128 Out
SYMBOL pnp -64 -272 M180
WINDOW 0 77 84 Left 2
WINDOW 3 75 52 Left 2
SYMATTR InstName Q11
SYMATTR Value CA_BC560C
SYMBOL res -16 528 R0
SYMATTR InstName R2
SYMATTR Value 100
SYMBOL res 176 528 R0
SYMATTR InstName R3
SYMATTR Value 100
SYMBOL res -16 -512 R0
SYMATTR InstName R9
SYMATTR Value 220
SYMBOL res 176 -512 R0
SYMATTR InstName R10
SYMATTR Value 220
SYMBOL res 752 -1088 R0
SYMATTR InstName R16
SYMATTR Value 39
SYMBOL pnp 704 -752 M180
SYMATTR InstName Q12
SYMATTR Value 2SA1381F
SYMBOL res 1264 -624 R90
WINDOW 0 0 56 VBottom 2
WINDOW 3 32 56 VTop 2
SYMATTR InstName R27
SYMATTR Value 10
SYMBOL res 1264 48 R90
WINDOW 0 0 56 VBottom 2
WINDOW 3 32 56 VTop 2
SYMATTR InstName R30
SYMATTR Value 10
SYMBOL res -16 -1088 R0
SYMATTR InstName R47
SYMATTR Value 100
SYMBOL res 752 -336 R0
WINDOW 3 36 76 Invisible 2
SYMATTR Value {1+(500*BIAS)}
SYMATTR InstName PBIAS1
SYMBOL res 752 -608 R0
SYMATTR InstName R52
SYMATTR Value 1k5
SYMBOL res 960 -624 R90
WINDOW 0 0 56 VBottom 2
WINDOW 3 32 56 VTop 2
SYMATTR InstName R53
SYMATTR Value 18
SYMBOL npn 704 304 R0
SYMATTR InstName Q3
SYMATTR Value 2SC3503F
SYMBOL res 752 528 R0
SYMATTR InstName R6
SYMATTR Value 18
SYMBOL res 560 -800 R0
SYMATTR InstName R4
SYMATTR Value 10k
SYMBOL pnp 64 -752 R180
SYMATTR InstName Q1
SYMATTR Value 2SA1381F
SYMBOL pnp 256 -272 R180
WINDOW 0 77 84 Left 2
WINDOW 3 75 52 Left 2
SYMATTR InstName Q7
SYMATTR Value CA_BC560C
SYMBOL npn 896 -464 R0
SYMATTR InstName Q21
SYMATTR Value MJE340
SYMBOL res 752 -224 R0
SYMATTR InstName R37
SYMATTR Value 360
SYMBOL npn 1472 -560 R0
SYMATTR InstName Q4
SYMATTR Value MJL3281A
SYMBOL pnp 1472 16 M180
SYMATTR InstName Q9
SYMATTR Value MJL1302A
SYMBOL res 1456 -528 R90
WINDOW 0 0 56 VBottom 2
WINDOW 3 32 56 VTop 2
SYMATTR InstName R5
SYMATTR Value 2.7
SYMBOL res 1456 -48 R90
WINDOW 0 0 56 VBottom 2
WINDOW 3 32 56 VTop 2
SYMATTR InstName R68
SYMATTR Value 2.7
SYMBOL cap 656 -48 R90
WINDOW 0 0 32 VBottom 2
WINDOW 3 32 32 VTop 2
SYMATTR InstName C3
SYMATTR Value 100p
SYMATTR SpiceLine V=100 Irms=20.8m Rser=5.448 Lser=3n Rpar=6.4meg Cpar=1p
SYMBOL npn 128 400 R0
SYMATTR InstName Q6
SYMATTR Value CA_BC550C
SYMBOL npn 64 400 M0
SYMATTR InstName Q8
SYMATTR Value CA_BC550C
SYMBOL res 768 -912 R90
WINDOW 0 0 56 VBottom 2
WINDOW 3 32 56 VTop 2
SYMATTR InstName R15
SYMATTR Value 1k
SYMBOL npn 608 208 R0
SYMATTR InstName Q2
SYMATTR Value CA_BC550C
SYMBOL res 656 528 R0
SYMATTR InstName R7
SYMATTR Value 680
SYMBOL cap 752 -48 R90
WINDOW 0 0 32 VBottom 2
WINDOW 3 32 32 VTop 2
SYMATTR InstName C5
SYMATTR Value 1n
SYMATTR SpiceLine V=100 Irms=75.3m Rser=2.89088 Lser=3n Rpar=4.4meg Cpar=1p
SYMBOL res 656 -224 R0
SYMATTR InstName R8
SYMATTR Value 1k
SYMBOL diode 688 80 R270
WINDOW 0 32 32 VTop 2
WINDOW 3 0 32 VBottom 2
SYMATTR InstName D1
SYMATTR Value BAV21
SYMBOL pnp 640 -848 R180
WINDOW 0 77 84 Left 2
WINDOW 3 75 52 Left 2
SYMATTR InstName Q10
SYMATTR Value 2N5401
SYMBOL res 1520 -336 R0
SYMATTR InstName R14
SYMATTR Value 0.22
SYMBOL res 1520 -224 R0
SYMATTR InstName R21
SYMATTR Value 0.22
SYMBOL res 176 -800 R0
SYMATTR InstName R35
SYMATTR Value 10k
SYMBOL cap 1136 -240 M180
WINDOW 0 24 56 Left 2
WINDOW 3 24 8 Left 2
SYMATTR InstName C1
SYMATTR Value 220n
SYMATTR SpiceLine V=25 Irms=1.76 Rser=0.057522 Lser=3n Rpar=4.4meg Cpar=1p
SYMBOL ind 1712 -400 R270
WINDOW 0 32 56 VTop 2
WINDOW 3 5 56 VBottom 2
SYMATTR InstName L7
SYMATTR Value 15n
SYMATTR SpiceLine Rser=20m
SYMBOL ind 1712 -112 R270
WINDOW 0 32 56 VTop 2
WINDOW 3 5 56 VBottom 2
SYMATTR InstName L8
SYMATTR Value 15n
SYMATTR SpiceLine Rser=20m
SYMBOL ind -192 -592 R270
WINDOW 0 32 56 VTop 2
WINDOW 3 5 56 VBottom 2
SYMATTR InstName L1
SYMATTR Value 15n
SYMATTR SpiceLine Rser=20m
SYMBOL ind -192 -304 R270
WINDOW 0 32 56 VTop 2
WINDOW 3 5 56 VBottom 2
SYMATTR InstName L2
SYMATTR Value 15n
SYMATTR SpiceLine Rser=20m
SYMBOL ind -192 -112 R270
WINDOW 0 32 56 VTop 2
WINDOW 3 5 56 VBottom 2
SYMATTR InstName L3
SYMATTR Value 15n
SYMATTR SpiceLine Rser=20m
SYMBOL ind 1712 -208 R270
WINDOW 0 32 56 VTop 2
WINDOW 3 5 56 VBottom 2
SYMATTR InstName L10
SYMATTR Value 10n
SYMATTR SpiceLine Rser=10m
SYMBOL ind 1712 -1072 R270
WINDOW 0 32 56 VTop 2
WINDOW 3 5 56 VBottom 2
SYMATTR InstName L9
SYMATTR Value 10n
SYMATTR SpiceLine Rser=10m
SYMBOL ind 1712 656 R270
WINDOW 0 32 56 VTop 2
WINDOW 3 5 56 VBottom 2
SYMATTR InstName L12
SYMATTR Value 10n
SYMATTR SpiceLine Rser=10m
SYMBOL cap 112 80 R270
WINDOW 0 32 32 VTop 2
WINDOW 3 0 32 VBottom 2
SYMATTR InstName C4
SYMATTR Value 22p
SYMATTR SpiceLine V=100 Irms=20.8m Rser=15.448 Lser=3n Rpar=6.4meg Cpar=1p
SYMBOL res 112 48 R90
WINDOW 0 0 56 VBottom 2
WINDOW 3 32 56 VTop 2
SYMATTR InstName R17
SYMATTR Value 680
SYMBOL pnp 128 -848 M180
WINDOW 0 77 84 Left 2
WINDOW 3 75 52 Left 2
SYMATTR InstName Q13
SYMATTR Value 2N5401
SYMBOL res 112 -912 R90
WINDOW 0 0 56 VBottom 2
WINDOW 3 32 56 VTop 2
SYMATTR InstName R12
SYMATTR Value 1k
SYMBOL npn 1280 -656 R0
SYMATTR InstName Q14
SYMATTR Value 2SC4793
SYMBOL pnp 1280 112 M180
SYMATTR InstName Q15
SYMATTR Value 2SA1837
SYMBOL res 1328 -336 R0
SYMATTR InstName R1
SYMATTR Value 47
SYMBOL npn 544 400 M0
SYMATTR InstName Q5
SYMATTR Value 2N5550
SYMBOL res 784 432 R90
WINDOW 0 0 56 VBottom 2
WINDOW 3 32 56 VTop 2
SYMATTR InstName R19
SYMATTR Value 1k
SYMBOL cap -112 560 R0
SYMATTR InstName C2
SYMATTR Value 100p
SYMATTR SpiceLine V=100 Irms=20.8m Rser=5.448 Lser=3n Rpar=6.4meg Cpar=1p
SYMBOL cap 368 464 R0
SYMATTR InstName C6
SYMATTR Value 100p
SYMATTR SpiceLine V=100 Irms=20.8m Rser=5.448 Lser=3n Rpar=6.4meg Cpar=1p
SYMBOL npn 1120 -464 M0
SYMATTR InstName Q16
SYMATTR Value 2N5550
SYMBOL diode 1040 -592 R0
SYMATTR InstName D2
SYMATTR Value BAV21
SYMBOL res 1424 -336 R0
SYMATTR InstName R11
SYMATTR Value 1k
SYMBOL res 1536 -432 R90
WINDOW 0 0 56 VBottom 2
WINDOW 3 32 56 VTop 2
SYMATTR InstName R13
SYMATTR Value 1k
SYMBOL pnp 1120 -80 R180
WINDOW 0 77 84 Left 2
WINDOW 3 75 52 Left 2
SYMATTR InstName Q17
SYMATTR Value 2N5401
SYMBOL res 1424 -224 R0
SYMATTR InstName R18
SYMATTR Value 1k
SYMBOL res 1536 -144 R90
WINDOW 0 0 56 VBottom 2
WINDOW 3 32 56 VTop 2
SYMATTR InstName R20
SYMATTR Value 1k
SYMBOL diode 1040 -16 R0
SYMATTR InstName D3
SYMATTR Value BAV21
TEXT -656 -976 Left 2 !.lib ../lib/ONNN_BJT.lib
TEXT -656 -912 Left 2 !.lib ../lib/STM_D.lib
TEXT -656 -1008 Left 2 !.lib ../lib/FCS_BJT.lib
TEXT -656 -1040 Left 2 !.lib ../lib/FCS_D.lib
TEXT -656 -944 Left 2 !.lib ../lib/ONNN_D.lib
TEXT -656 -880 Left 2 !.lib ../lib/TSE_BJT.lib
TEXT -992 -976 Left 2 !.lib ../lib/TXN_IC.lib
RECTANGLE Normal -336 -848 -1008 -1056
