Version 4
SHEET 1 6124 2336
WIRE 192 -1184 0 -1184
WIRE 576 -1184 192 -1184
WIRE 768 -1184 576 -1184
WIRE 1440 -1184 768 -1184
WIRE 1632 -1184 1440 -1184
WIRE 1824 -1184 1632 -1184
WIRE 2016 -1184 1824 -1184
WIRE 2160 -1184 2016 -1184
WIRE 2256 -1184 2240 -1184
WIRE 0 -1168 0 -1184
WIRE 768 -1168 768 -1184
WIRE 192 -1040 192 -1184
WIRE 576 -1040 576 -1184
WIRE 0 -992 0 -1088
WIRE 16 -992 0 -992
WIRE 128 -992 96 -992
WIRE 672 -992 640 -992
WIRE 768 -992 768 -1088
WIRE 768 -992 752 -992
WIRE 0 -944 0 -992
WIRE 768 -944 768 -992
WIRE 192 -896 192 -944
WIRE 192 -896 64 -896
WIRE 576 -896 576 -944
WIRE 704 -896 576 -896
WIRE 192 -880 192 -896
WIRE 576 -880 576 -896
WIRE 1440 -848 1440 -1184
WIRE 768 -800 768 -848
WIRE 864 -800 768 -800
WIRE 960 -800 944 -800
WIRE 1056 -800 960 -800
WIRE 1152 -800 1056 -800
WIRE 1264 -800 1152 -800
WIRE 1376 -800 1344 -800
WIRE 1152 -784 1152 -800
WIRE 1632 -752 1632 -1184
WIRE 1440 -704 1440 -752
WIRE 1456 -704 1440 -704
WIRE 1568 -704 1536 -704
WIRE 1824 -656 1824 -1184
WIRE -176 -608 -192 -608
WIRE 192 -608 192 -800
WIRE 192 -608 -96 -608
WIRE 384 -608 192 -608
WIRE 576 -608 576 -800
WIRE 576 -608 384 -608
WIRE 1440 -608 1440 -704
WIRE 1648 -608 1440 -608
WIRE 1760 -608 1728 -608
WIRE 768 -592 768 -800
WIRE 2016 -560 2016 -1184
WIRE 0 -512 0 -848
WIRE 192 -512 0 -512
WIRE 1440 -512 1440 -608
WIRE 1840 -512 1440 -512
WIRE 1952 -512 1920 -512
WIRE 0 -496 0 -512
WIRE 192 -496 192 -512
WIRE 960 -464 960 -800
WIRE 1152 -464 1152 -720
WIRE 768 -416 768 -512
WIRE 896 -416 768 -416
WIRE 1536 -416 1216 -416
WIRE 1632 -416 1632 -656
WIRE 1632 -416 1616 -416
WIRE 1728 -416 1632 -416
WIRE 1824 -416 1824 -560
WIRE 1920 -416 1824 -416
WIRE 2016 -416 2016 -464
WIRE 2112 -416 2016 -416
WIRE 0 -368 0 -416
WIRE 192 -368 192 -416
WIRE -176 -320 -192 -320
WIRE -64 -320 -96 -320
WIRE 288 -320 256 -320
WIRE 768 -320 768 -416
WIRE 1440 -320 1440 -512
WIRE 1536 -320 1536 -416
WIRE 1632 -320 1632 -416
WIRE 1728 -320 1728 -416
WIRE 1824 -320 1824 -416
WIRE 1920 -320 1920 -416
WIRE 2016 -320 2016 -416
WIRE 2112 -320 2112 -416
WIRE 480 -304 480 -320
WIRE 1056 -304 1056 -800
WIRE 1152 -224 1152 -368
WIRE 1152 -224 672 -224
WIRE 1536 -224 1536 -240
WIRE 1536 -224 1152 -224
WIRE 1632 -224 1632 -240
WIRE 1632 -224 1536 -224
WIRE 1728 -224 1728 -240
WIRE 1728 -224 1632 -224
WIRE 1824 -224 1824 -240
WIRE 1824 -224 1728 -224
WIRE 1920 -224 1920 -240
WIRE 1920 -224 1824 -224
WIRE 2016 -224 2016 -240
WIRE 2016 -224 1920 -224
WIRE 2112 -224 2112 -240
WIRE 2112 -224 2016 -224
WIRE 2224 -224 2112 -224
WIRE 2320 -224 2304 -224
WIRE 384 -208 384 -320
WIRE 672 -208 672 -224
WIRE 768 -208 768 -240
WIRE 1536 -208 1536 -224
WIRE 1632 -208 1632 -224
WIRE 1728 -208 1728 -224
WIRE 1824 -208 1824 -224
WIRE 1920 -208 1920 -224
WIRE 2016 -208 2016 -224
WIRE 2112 -208 2112 -224
WIRE 1152 -176 1152 -224
WIRE -176 -128 -192 -128
WIRE 288 -128 288 -320
WIRE 288 -128 -96 -128
WIRE 384 -128 384 -144
WIRE 480 -128 480 -240
WIRE 480 -128 384 -128
WIRE 1536 -128 1216 -128
WIRE 1632 -128 1616 -128
WIRE 1728 -128 1632 -128
WIRE 1920 -128 1824 -128
WIRE 2112 -128 2016 -128
WIRE 192 -80 192 -272
WIRE 2016 -80 2016 -128
WIRE 288 -32 256 -32
WIRE 384 -32 384 -128
WIRE 384 -32 368 -32
WIRE 496 -32 480 -32
WIRE 592 -32 576 -32
WIRE 672 -32 672 -128
WIRE 672 -32 656 -32
WIRE 688 -32 672 -32
WIRE 768 -32 768 -128
WIRE 768 -32 752 -32
WIRE 1440 -32 1440 -240
WIRE 1840 -32 1440 -32
WIRE 1952 -32 1920 -32
WIRE 0 16 0 -272
WIRE 1824 16 1824 -128
WIRE 288 64 64 64
WIRE 384 64 384 -32
WIRE 384 64 368 64
WIRE 480 64 480 -32
WIRE 688 64 480 64
WIRE 768 64 768 -32
WIRE 768 64 752 64
WIRE 1440 64 1440 -32
WIRE 1648 64 1440 64
WIRE 1760 64 1728 64
WIRE 384 80 384 64
WIRE 1632 112 1632 -128
WIRE 0 160 0 112
WIRE 16 160 0 160
WIRE 112 160 96 160
WIRE 192 160 192 16
WIRE 192 160 176 160
WIRE 1440 160 1440 64
WIRE 1456 160 1440 160
WIRE 1568 160 1536 160
WIRE 1152 176 1152 -80
WIRE 1440 208 1440 160
WIRE 768 256 768 64
WIRE 960 256 960 -368
WIRE 960 256 768 256
WIRE 1056 256 1056 -240
WIRE 1056 256 960 256
WIRE 1152 256 1152 240
WIRE 1152 256 1056 256
WIRE 1264 256 1152 256
WIRE 1376 256 1344 256
WIRE 672 304 672 160
WIRE 0 352 0 160
WIRE 480 352 480 64
WIRE 480 352 0 352
WIRE 608 352 480 352
WIRE 768 400 768 256
WIRE 192 448 192 160
WIRE 192 448 96 448
WIRE 672 448 672 400
WIRE 704 448 672 448
WIRE 0 496 0 352
WIRE 192 496 192 448
WIRE 480 496 480 352
WIRE 96 544 96 448
WIRE 96 544 64 544
WIRE 128 544 96 544
WIRE 688 544 544 544
WIRE 768 544 768 496
WIRE 288 560 288 448
WIRE 0 640 0 592
WIRE 0 640 -96 640
WIRE 192 640 192 592
WIRE 288 640 288 624
WIRE 288 640 192 640
WIRE 672 640 672 448
WIRE 768 640 768 544
WIRE -96 656 -96 640
WIRE -96 736 -96 720
WIRE 0 736 0 720
WIRE 0 736 -96 736
WIRE 192 736 192 720
WIRE 192 736 0 736
WIRE 384 736 384 160
WIRE 384 736 192 736
WIRE 480 736 480 592
WIRE 480 736 384 736
WIRE 672 736 672 720
WIRE 672 736 480 736
WIRE 768 736 768 720
WIRE 768 736 672 736
WIRE 1440 736 1440 304
WIRE 1440 736 768 736
WIRE 1632 736 1632 208
WIRE 1632 736 1440 736
WIRE 1824 736 1824 112
WIRE 1824 736 1632 736
WIRE 2016 736 2016 16
WIRE 2016 736 1824 736
WIRE 2160 736 2016 736
WIRE 2256 736 2240 736
FLAG 2256 -1184 pvcc
IOPIN 2256 -1184 In
FLAG 2256 736 pvee
IOPIN 2256 736 In
FLAG 2320 -224 out
IOPIN 2320 -224 Out
FLAG -192 -320 ninv
IOPIN -192 -320 In
FLAG -192 -128 inv
IOPIN -192 -128 In
FLAG -192 -608 gnd
IOPIN -192 -608 In
FLAG 384 -608 lgnd
FLAG 384 -320 lgnd
FLAG 480 -320 lgnd
FLAG 672 160 lgnd
FLAG 288 448 lgnd
SYMBOL pnp -64 -272 M180
WINDOW 0 77 84 Left 2
WINDOW 3 75 52 Left 2
SYMATTR InstName Q11
SYMATTR Value CA_BC560C
SYMBOL res -16 624 R0
SYMATTR InstName R2
SYMATTR Value 100
SYMBOL res 176 624 R0
SYMATTR InstName R3
SYMATTR Value 100
SYMBOL res -16 -512 R0
SYMATTR InstName R9
SYMATTR Value 220
SYMBOL res 176 -512 R0
SYMATTR InstName R10
SYMATTR Value 220
SYMBOL res 752 -1184 R0
SYMATTR InstName R16
SYMATTR Value 39
SYMBOL pnp 704 -848 M180
SYMATTR InstName Q12
SYMATTR Value 2SA1381F
SYMBOL res 1360 -816 R90
WINDOW 0 0 56 VBottom 2
WINDOW 3 32 56 VTop 2
SYMATTR InstName R27
SYMATTR Value 10
SYMBOL res 1360 240 R90
WINDOW 0 0 56 VBottom 2
WINDOW 3 32 56 VTop 2
SYMATTR InstName R30
SYMATTR Value 10
SYMBOL res -16 -1184 R0
SYMATTR InstName R47
SYMATTR Value 100
SYMBOL res 752 -336 R0
WINDOW 3 36 76 Invisible 2
SYMATTR Value {1+(500*BIAS)}
SYMATTR InstName PBIAS1
SYMBOL res 752 -608 R0
SYMATTR InstName R52
SYMATTR Value 1k5
SYMBOL res 960 -816 R90
WINDOW 0 0 56 VBottom 2
WINDOW 3 32 56 VTop 2
SYMATTR InstName R53
SYMATTR Value 18
SYMBOL npn 704 400 R0
SYMATTR InstName Q3
SYMATTR Value 2SC3503F
SYMBOL res 752 624 R0
SYMATTR InstName R6
SYMATTR Value 18
SYMBOL res 560 -896 R0
SYMATTR InstName R4
SYMATTR Value 10k
SYMBOL pnp 64 -848 R180
SYMATTR InstName Q1
SYMATTR Value 2SA1381F
SYMBOL pnp 256 -272 R180
WINDOW 0 77 84 Left 2
WINDOW 3 75 52 Left 2
SYMATTR InstName Q7
SYMATTR Value CA_BC560C
SYMBOL npn 896 -464 R0
SYMATTR InstName Q21
SYMATTR Value MJE340
SYMBOL res 752 -224 R0
SYMATTR InstName R37
SYMATTR Value 405
SYMBOL npn 1568 -752 R0
SYMATTR InstName Q4
SYMATTR Value MJL3281A
SYMBOL pnp 1568 208 M180
SYMATTR InstName Q9
SYMATTR Value MJL1302A
SYMBOL res 1552 -720 R90
WINDOW 0 0 56 VBottom 2
WINDOW 3 32 56 VTop 2
SYMATTR InstName R5
SYMATTR Value 2.7
SYMBOL res 1552 144 R90
WINDOW 0 0 56 VBottom 2
WINDOW 3 32 56 VTop 2
SYMATTR InstName R68
SYMATTR Value 2.7
SYMBOL cap 656 -48 R90
WINDOW 0 0 32 VBottom 2
WINDOW 3 32 32 VTop 2
SYMATTR InstName Cmc
SYMATTR Value 100p
SYMATTR SpiceLine V=100 Irms=20.8m Rser=5.448 Lser=3n Rpar=6.4meg Cpar=1p
SYMBOL npn 128 496 R0
SYMATTR InstName Q6
SYMATTR Value CA_BC550C
SYMBOL npn 64 496 M0
SYMATTR InstName Q8
SYMATTR Value CA_BC550C
SYMBOL res 768 -1008 R90
WINDOW 0 0 56 VBottom 2
WINDOW 3 32 56 VTop 2
SYMATTR InstName R15
SYMATTR Value 1k
SYMBOL npn 608 304 R0
SYMATTR InstName Q2
SYMATTR Value BC546B
SYMBOL res 656 624 R0
SYMATTR InstName R7
SYMATTR Value 680
SYMBOL cap 752 -48 R90
WINDOW 0 0 32 VBottom 2
WINDOW 3 32 32 VTop 2
SYMATTR InstName Ctc
SYMATTR Value 1n
SYMATTR SpiceLine V=100 Irms=75.3m Rser=2.89088 Lser=3n Rpar=4.4meg Cpar=1p
SYMBOL res 656 -224 R0
SYMATTR InstName Rtc
SYMATTR Value 1k
SYMBOL diode 688 80 R270
WINDOW 0 32 32 VTop 2
WINDOW 3 0 32 VBottom 2
SYMATTR InstName D1
SYMATTR Value BAV21
SYMBOL pnp 640 -944 R180
WINDOW 0 77 84 Left 2
WINDOW 3 75 52 Left 2
SYMATTR InstName Q10
SYMATTR Value 2N5401
SYMBOL res 1616 -336 R0
SYMATTR InstName R14
SYMATTR Value 0.22
SYMBOL res 1616 -224 R0
SYMATTR InstName R21
SYMATTR Value 0.22
SYMBOL res 176 -896 R0
SYMATTR InstName R35
SYMATTR Value 10k
SYMBOL cap 1040 -240 M180
WINDOW 0 24 56 Left 2
WINDOW 3 24 8 Left 2
SYMATTR InstName C1
SYMATTR Value 220n
SYMATTR SpiceLine V=25 Irms=1.76 Rser=0.057522 Lser=3n Rpar=4.4meg Cpar=1p
SYMBOL ind -192 -592 R270
WINDOW 0 32 56 VTop 2
WINDOW 3 5 56 VBottom 2
SYMATTR InstName L1
SYMATTR Value 15n
SYMATTR SpiceLine Rser=20m
SYMBOL ind -192 -304 R270
WINDOW 0 32 56 VTop 2
WINDOW 3 5 56 VBottom 2
SYMATTR InstName L2
SYMATTR Value 15n
SYMATTR SpiceLine Rser=20m
SYMBOL ind -192 -112 R270
WINDOW 0 32 56 VTop 2
WINDOW 3 5 56 VBottom 2
SYMATTR InstName L3
SYMATTR Value 15n
SYMATTR SpiceLine Rser=20m
SYMBOL ind 2208 -208 R270
WINDOW 0 32 56 VTop 2
WINDOW 3 5 56 VBottom 2
SYMATTR InstName L10
SYMATTR Value 20n
SYMATTR SpiceLine Rser=10m
SYMBOL ind 2144 -1168 R270
WINDOW 0 32 56 VTop 2
WINDOW 3 5 56 VBottom 2
SYMATTR InstName L9
SYMATTR Value 10n
SYMATTR SpiceLine Rser=10m
SYMBOL ind 2144 752 R270
WINDOW 0 32 56 VTop 2
WINDOW 3 5 56 VBottom 2
SYMATTR InstName L12
SYMATTR Value 10n
SYMATTR SpiceLine Rser=10m
SYMBOL cap 112 176 R270
WINDOW 0 32 32 VTop 2
WINDOW 3 0 32 VBottom 2
SYMATTR InstName C4
SYMATTR Value 22p
SYMATTR SpiceLine V=100 Irms=20.8m Rser=15.448 Lser=3n Rpar=6.4meg Cpar=1p
SYMBOL res 112 144 R90
WINDOW 0 0 56 VBottom 2
WINDOW 3 32 56 VTop 2
SYMATTR InstName R17
SYMATTR Value 680
SYMBOL pnp 128 -944 M180
WINDOW 0 77 84 Left 2
WINDOW 3 75 52 Left 2
SYMATTR InstName Q13
SYMATTR Value 2N5401
SYMBOL res 112 -1008 R90
WINDOW 0 0 56 VBottom 2
WINDOW 3 32 56 VTop 2
SYMATTR InstName R12
SYMATTR Value 1k
SYMBOL npn 1376 -848 R0
SYMATTR InstName Q14
SYMATTR Value 2SC4793
SYMBOL pnp 1376 304 M180
SYMATTR InstName Q15
SYMATTR Value 2SA1837
SYMBOL res 1424 -336 R0
SYMATTR InstName R1
SYMATTR Value 47
SYMBOL npn 544 496 M0
WINDOW 0 -29 -47 Left 2
WINDOW 3 -94 -18 Left 2
SYMATTR InstName Q5
SYMATTR Value 2N5550
SYMBOL res 784 528 R90
WINDOW 0 0 56 VBottom 2
WINDOW 3 32 56 VTop 2
SYMATTR InstName R19
SYMATTR Value 1k
SYMBOL cap -112 656 R0
SYMATTR InstName Cpsrgs
SYMATTR Value 100p
SYMATTR SpiceLine V=100 Irms=20.8m Rser=5.448 Lser=3n Rpar=6.4meg Cpar=1p
SYMBOL cap 272 560 R0
SYMATTR InstName Cpsrg
SYMATTR Value 100p
SYMATTR SpiceLine V=100 Irms=20.8m Rser=5.448 Lser=3n Rpar=6.4meg Cpar=1p
SYMBOL npn 1216 -464 M0
SYMATTR InstName Q16
SYMATTR Value 2N5550
SYMBOL diode 1136 -784 R0
SYMATTR InstName D2
SYMATTR Value BAV21
SYMBOL res 1520 -336 R0
SYMATTR InstName R11
SYMATTR Value 1k
SYMBOL res 1632 -432 R90
WINDOW 0 0 56 VBottom 2
WINDOW 3 32 56 VTop 2
SYMATTR InstName R13
SYMATTR Value 1k
SYMBOL pnp 1216 -80 R180
WINDOW 0 77 84 Left 2
WINDOW 3 75 52 Left 2
SYMATTR InstName Q17
SYMATTR Value 2N5401
SYMBOL res 1520 -224 R0
SYMATTR InstName R18
SYMATTR Value 1k
SYMBOL res 1632 -144 R90
WINDOW 0 0 56 VBottom 2
WINDOW 3 32 56 VTop 2
SYMATTR InstName R20
SYMATTR Value 1k
SYMBOL diode 1136 176 R0
SYMATTR InstName D3
SYMATTR Value BAV21
SYMBOL res 1712 -336 R0
SYMATTR InstName R22
SYMATTR Value 0.22
SYMBOL res 1712 -224 R0
SYMATTR InstName R23
SYMATTR Value 0.22
SYMBOL res 592 -48 R90
WINDOW 0 0 56 VBottom 2
WINDOW 3 32 56 VTop 2
SYMATTR InstName Rrhz
SYMATTR Value 1e-3
SYMBOL zener 368 -144 M180
WINDOW 0 24 64 Left 2
WINDOW 3 24 0 Left 2
SYMATTR InstName D4
SYMATTR Value BZX84C16VL
SYMATTR Description Diode
SYMATTR Type diode
SYMBOL cap 464 -240 M180
WINDOW 0 24 56 Left 2
WINDOW 3 24 8 Left 2
SYMATTR InstName C2
SYMATTR Value 220n
SYMATTR SpiceLine V=25 Irms=1.76 Rser=0.057522 Lser=3n Rpar=4.4meg Cpar=1p
SYMBOL pnp 64 112 R180
SYMATTR InstName Q18
SYMATTR Value 2SA1381F
SYMBOL pnp 256 16 R180
SYMATTR InstName Q19
SYMATTR Value 2SA1381F
SYMBOL res 368 64 R0
SYMATTR InstName R25
SYMATTR Value 10k
SYMBOL res 384 48 R90
WINDOW 0 0 56 VBottom 2
WINDOW 3 32 56 VTop 2
SYMATTR InstName R26
SYMATTR Value 100
SYMBOL res 384 -48 R90
WINDOW 0 0 56 VBottom 2
WINDOW 3 32 56 VTop 2
SYMATTR InstName R28
SYMATTR Value 100
SYMBOL res 1808 -336 R0
SYMATTR InstName R8
SYMATTR Value 0.22
SYMBOL res 1808 -224 R0
SYMATTR InstName R24
SYMATTR Value 0.22
SYMBOL res 1904 -336 R0
SYMATTR InstName R29
SYMATTR Value 0.22
SYMBOL res 1904 -224 R0
SYMATTR InstName R31
SYMATTR Value 0.22
SYMBOL npn 1760 -656 R0
SYMATTR InstName Q20
SYMATTR Value MJL3281A
SYMBOL res 1744 -624 R90
WINDOW 0 0 56 VBottom 2
WINDOW 3 32 56 VTop 2
SYMATTR InstName R32
SYMATTR Value 2.7
SYMBOL pnp 1760 112 M180
SYMATTR InstName Q22
SYMATTR Value MJL1302A
SYMBOL res 1744 48 R90
WINDOW 0 0 56 VBottom 2
WINDOW 3 32 56 VTop 2
SYMATTR InstName R33
SYMATTR Value 2.7
SYMBOL res 2000 -336 R0
SYMATTR InstName R34
SYMATTR Value 0.22
SYMBOL res 2000 -224 R0
SYMATTR InstName R36
SYMATTR Value 0.22
SYMBOL res 2096 -336 R0
SYMATTR InstName R38
SYMATTR Value 0.22
SYMBOL res 2096 -224 R0
SYMATTR InstName R39
SYMATTR Value 0.22
SYMBOL npn 1952 -560 R0
SYMATTR InstName Q23
SYMATTR Value MJL3281A
SYMBOL res 1936 -528 R90
WINDOW 0 0 56 VBottom 2
WINDOW 3 32 56 VTop 2
SYMATTR InstName R40
SYMATTR Value 2.7
SYMBOL pnp 1952 16 M180
SYMATTR InstName Q24
SYMATTR Value MJL1302A
SYMBOL res 1936 -48 R90
WINDOW 0 0 56 VBottom 2
WINDOW 3 32 56 VTop 2
SYMATTR InstName R41
SYMATTR Value 2.7
TEXT -992 -968 Left 2 !.lib ../../spice_root/lib/ONNN_BJT.lib
TEXT -992 -904 Left 2 !.lib ../../spice_root/lib/STM_D.lib
TEXT -992 -1000 Left 2 !.lib ../../spice_root/lib/FCS_BJT.lib
TEXT -992 -1032 Left 2 !.lib ../../spice_root/lib/FCS_D.lib
TEXT -992 -936 Left 2 !.lib ../../spice_root/lib/ONNN_D.lib
TEXT -992 -872 Left 2 !.lib ../../spice_root/lib/TSE_BJT.lib
TEXT -992 -840 Left 2 !.lib ../../spice_root/lib/TXN_IC.lib
RECTANGLE Normal -336 -816 -1008 -1056
